
 OpenBabel09012216333D

 24 25  0  0  0  0  0  0  0  0999 V2000
    1.0336   -0.0799   -0.0372 C   0  0  0  0  0  0  0  0  0  0  0  0
    2.4931   -0.0925   -0.0376 N   0  0  0  0  0  0  0  0  0  0  0  0
    3.3128    0.9868   -0.0392 C   0  0  0  0  0  0  0  0  0  0  0  0
    4.6244    0.6406   -0.0391 N   0  0  0  0  0  0  0  0  0  0  0  0
    4.5987   -0.7069   -0.0373 C   0  0  0  0  0  0  0  0  0  0  0  0
    3.3195   -1.1543   -0.0364 C   0  0  0  0  0  0  0  0  0  0  0  0
    3.0451   -2.5161   -0.0346 C   0  0  0  0  0  0  0  0  0  0  0  0
    1.8922   -2.9148   -0.0337 O   0  0  0  0  0  0  0  0  0  0  0  0
    4.1163   -3.3997   -0.0337 N   0  0  0  0  0  0  0  0  0  0  0  0
    5.4244   -2.9120   -0.0347 C   0  0  0  0  0  0  0  0  0  0  0  0
    6.3610   -3.6966   -0.0339 O   0  0  0  0  0  0  0  0  0  0  0  0
    5.6701   -1.5431   -0.0365 N   0  0  0  0  0  0  0  0  0  0  0  0
    7.0280   -0.9824   -0.0376 C   0  0  0  0  0  0  0  0  0  0  0  0
    3.8958   -4.8557   -0.0317 C   0  0  0  0  0  0  0  0  0  0  0  0
    0.6531    0.9638   -0.0385 H   0  0  0  0  0  0  0  0  0  0  0  0
    0.6547   -0.5954    0.8700 H   0  0  0  0  0  0  0  0  0  0  0  0
    0.6543   -0.5978   -0.9430 H   0  0  0  0  0  0  0  0  0  0  0  0
    2.9658    2.0121   -0.0405 H   0  0  0  0  0  0  0  0  0  0  0  0
    7.8098   -1.7702   -0.0368 H   0  0  0  0  0  0  0  0  0  0  0  0
    7.1748   -0.3537    0.8664 H   0  0  0  0  0  0  0  0  0  0  0  0
    7.1743   -0.3561   -0.9433 H   0  0  0  0  0  0  0  0  0  0  0  0
    2.8190   -5.1251   -0.0311 H   0  0  0  0  0  0  0  0  0  0  0  0
    4.3576   -5.3037    0.8738 H   0  0  0  0  0  0  0  0  0  0  0  0
    4.3571   -5.3061   -0.9363 H   0  0  0  0  0  0  0  0  0  0  0  0
  1  2  1  0  0  0  0
  1 15  1  0  0  0  0
  1 16  1  0  0  0  0
  1 17  1  0  0  0  0
  2  3  1  0  0  0  0
  2  6  1  0  0  0  0
  3  4  2  0  0  0  0
  3 18  1  0  0  0  0
  4  5  1  0  0  0  0
  5  6  2  0  0  0  0
  5 12  1  0  0  0  0
  6  7  1  0  0  0  0
  7  8  2  0  0  0  0
  7  9  1  0  0  0  0
  9 10  1  0  0  0  0
  9 14  1  0  0  0  0
 10 11  2  0  0  0  0
 10 12  1  0  0  0  0
 12 13  1  0  0  0  0
 13 19  1  0  0  0  0
 13 20  1  0  0  0  0
 13 21  1  0  0  0  0
 14 22  1  0  0  0  0
 14 23  1  0  0  0  0
 14 24  1  0  0  0  0
M  END
